WEBVTT
Kind: captions
Language: en

00:00:01.379 --> 00:00:04.720
 Living 

00:00:04.720 --> 00:00:05.830
 End 

00:00:05.830 --> 00:00:08.830
 To original text 

00:00:09.479 --> 00:00:12.479
 Smoke separation 

00:00:14.809 --> 00:00:17.809
 I understood 

00:00:18.349 --> 00:00:20.509
 Most 

00:00:20.509 --> 00:00:22.710
 Continue to crash 

00:00:22.710 --> 00:00:25.460
 The sea and mountains have become a wild development 

00:00:25.460 --> 00:00:28.460
 I went to see the tour of the production 

00:00:37.040 --> 00:00:38.920
 Sorry 

00:00:38.920 --> 00:00:40.470
 9 daughters 

00:00:40.470 --> 00:00:45.050
 A man who has something like a bluff from the previous month 

00:00:45.050 --> 00:00:48.880
 Although the amount that cash etc. were stored was included 

00:00:48.880 --> 00:00:55.260
 Most of the stress on the job after a problem with increasing book 

00:00:55.980 --> 00:00:58.980
 It was soothing 

00:01:06.380 --> 00:01:07.380
 Against 

00:01:07.380 --> 00:01:10.380
 Have you ever seen 

00:01:15.290 --> 00:01:18.270
 Maeba Thai stock side road outside ring road 

00:01:18.270 --> 00:01:19.450
 Quite 

00:01:19.450 --> 00:01:20.740
 Just forever 

00:01:20.740 --> 00:01:23.390
 I feel honestly Andes 

00:01:23.390 --> 00:01:25.400
 To revival 

00:01:25.400 --> 00:01:28.030
 Softbank lost three consecutive games 

00:01:28.030 --> 00:01:30.810
 Migraine Swarm Headache Nonsense 

00:01:30.810 --> 00:01:32.120
 1132 

00:01:32.120 --> 00:01:33.690
 fanfun. 

00:01:33.690 --> 00:01:35.760
 Seems to revive 

00:01:35.760 --> 00:01:39.410
 I was born but I'm based but I've assembled 

00:01:39.410 --> 00:01:42.410
 Go far too far 

00:01:57.700 --> 00:01:59.080
 ls-dyna 

00:01:59.080 --> 00:02:02.080
 Cute kids 

00:02:03.900 --> 00:02:05.740
 ... 

00:02:05.740 --> 00:02:07.360
 It is normal 

00:02:07.360 --> 00:02:09.149
 Triangle mountain 

00:02:09.149 --> 00:02:11.369
 Fans 

00:02:11.369 --> 00:02:13.119
 It is well 

00:02:13.119 --> 00:02:14.679
 3. 

00:02:14.679 --> 00:02:17.679
 Three times 

00:02:18.239 --> 00:02:20.019
 There is also a possibility of early 

00:02:20.019 --> 00:02:21.549
 Hit rate. O 

00:02:21.549 --> 00:02:24.549
 Please throw in such 

00:02:33.719 --> 00:02:35.349
 The upset that Suzuki loses 

00:02:35.349 --> 00:02:38.479
 free 

00:02:38.479 --> 00:02:41.469
 Kashima of set f lost 0-1 

00:02:41.469 --> 00:02:45.579
 In this two days 8366 is so much anaconda sweets house 

00:02:45.579 --> 00:02:49.029
 Do not eat 

00:02:49.029 --> 00:02:52.619
 It was cold and was delicious when it was made 

00:03:17.999 --> 00:03:20.379
 Year-to-date high price 

00:03:20.379 --> 00:03:23.459
 Has been through a college from Fujieda Higashitaka 

00:03:23.459 --> 00:03:25.399
 Mr. Dalai Lama says 

00:03:25.399 --> 00:03:28.399
 Average age 

00:03:31.029 --> 00:03:34.029
 Large ear small ear 

00:03:36.239 --> 00:03:39.239
 I do not want to get the first place 

00:03:39.949 --> 00:03:42.949
 The young charge campaign that broke immediately after 

00:03:46.169 --> 00:03:49.229
 After all the form which sold the left elbow 

00:03:49.229 --> 00:03:51.779
 Feed the mainstay for children 

00:03:51.779 --> 00:03:54.779
 We introduce 14 stores in the city area of ​​Minabe 

00:03:55.369 --> 00:03:58.369
 Second base 

00:03:59.089 --> 00:04:02.089
 roof 

00:04:03.069 --> 00:04:06.069
 Meanwhile 2111 

00:04:06.689 --> 00:04:09.689
 Sugiura 

00:04:10.299 --> 00:04:13.299
 sap Japan prices are high 

00:04:17.419 --> 00:04:20.419
 I hate it 

00:04:31.610 --> 00:04:34.610
 Manage pension records 

00:04:38.689 --> 00:04:39.999
 Peter Marie 

00:04:39.999 --> 00:04:43.479
 The first time I was skillfully eaten poisoned mushrooms 

00:04:43.479 --> 00:04:46.479
 It is because it was less than open 

00:04:51.449 --> 00:04:52.570
 Net 

00:04:52.570 --> 00:04:55.659
 2nd place in the Labor Standards Act 

00:04:55.659 --> 00:04:57.949
 Medical drugs 

00:04:57.949 --> 00:05:01.349
 It is in June 

00:05:01.349 --> 00:05:03.669
 Approximately 18 meters in total 

00:05:03.669 --> 00:05:04.539
 End 

00:05:04.539 --> 00:05:06.159
 Sale 

00:05:06.159 --> 00:05:09.159
 Always keep in mind Japan's leading decline 

00:05:09.729 --> 00:05:10.309
 One box thousand yen 

